C:\Users\yuzuka\Documents\lab\vina\test\output.pdbqt
 OpenBabel06282214433D

 28 29  0  0  0  0  0  0  0  0999 V2000
  -24.6260  -43.4840    5.3520 Cl  0  0  0  0  0  0  0  0  0  0  0  0
  -25.4480  -38.7410    7.6650 Cl  0  0  0  0  0  0  0  0  0  0  0  0
  -25.1290  -39.7590    6.3170 C   0  0  0  0  0  0  0  0  0  0  0  0
  -24.9900  -41.1120    6.4880 C   0  0  0  0  0  3  0  0  0  0  0  0
  -24.6500  -41.9360    5.4420 C   0  0  0  0  0  0  0  0  0  0  0  0
  -24.4510  -41.4470    4.1610 C   0  0  0  0  0  0  0  0  0  0  0  0
  -24.6380  -40.0660    3.9890 C   0  0  0  0  0  3  0  0  0  0  0  0
  -24.9810  -39.2220    5.0350 C   0  0  0  0  0  0  0  0  0  0  0  0
  -25.2290  -37.7180    4.8320 C   0  0  0  0  0  1  0  0  0  0  0  0
  -23.9990  -42.4670    2.8170 S   0  0  0  0  0  0  0  0  0  0  0  0
  -22.6580  -43.0910    3.1630 O   0  0  0  0  0  0  0  0  0  0  0  0
  -23.7180  -41.4750    1.6860 O   0  0  0  0  0  0  0  0  0  0  0  0
  -25.1030  -43.6990    2.2020 C   0  0  0  0  0  0  0  0  0  0  0  0
  -26.4880  -43.5040    2.1630 C   0  0  0  0  0  0  0  0  0  0  0  0
  -27.3680  -44.5100    1.7580 C   0  0  0  0  0  3  0  0  0  0  0  0
  -26.8830  -45.7540    1.3650 C   0  0  0  0  0  0  0  0  0  0  0  0
  -25.5060  -45.9580    1.3790 C   0  0  0  0  0  3  0  0  0  0  0  0
  -24.6270  -44.9520    1.7860 C   0  0  0  0  0  0  0  0  0  0  0  0
  -27.0290  -42.3330    2.4920 N   0  0  0  0  0  0  0  0  0  0  0  0
  -26.9900  -41.2570    1.5530 O   0  0  0  0  0  0  0  0  0  0  0  0
  -27.6640  -42.1690    3.7640 O   0  0  0  0  0  0  0  0  0  0  0  0
  -27.8540  -46.8580    0.9050 C   0  0  0  0  0  0  0  0  0  0  0  0
  -29.0020  -46.3060    0.4890 F   0  0  0  0  0  0  0  0  0  0  0  0
  -27.3200  -47.6190   -0.0760 F   0  0  0  0  0  0  0  0  0  0  0  0
  -28.1340  -47.6590    1.9440 F   0  0  0  0  0  0  0  0  0  0  0  0
  -23.3150  -45.2120    1.7550 N   0  0  0  0  0  0  0  0  0  0  0  0
  -22.7080  -45.9360    2.8320 O   0  0  0  0  0  0  0  0  0  0  0  0
  -22.5260  -44.7770    0.6380 O   0  0  0  0  0  0  0  0  0  0  0  0
  1  5  1  0  0  0  0
  3  4  1  0  0  0  0
  3  2  1  0  0  0  0
  5  4  2  0  0  0  0
  6  5  1  0  0  0  0
  7  6  2  0  0  0  0
  7  8  1  0  0  0  0
  8  3  2  0  0  0  0
  9  8  1  0  0  0  0
 10 11  2  0  0  0  0
 10  6  1  0  0  0  0
 12 10  2  0  0  0  0
 13 10  1  0  0  0  0
 14 13  1  0  0  0  0
 14 19  1  0  0  0  0
 15 14  2  0  0  0  0
 16 17  2  0  0  0  0
 16 15  1  0  0  0  0
 17 18  1  0  0  0  0
 18 13  2  0  0  0  0
 19 21  2  0  0  0  0
 20 19  2  0  0  0  0
 22 16  1  0  0  0  0
 22 25  1  0  0  0  0
 23 22  1  0  0  0  0
 24 22  1  0  0  0  0
 26 18  1  0  0  0  0
 26 27  2  0  0  0  0
 28 26  2  0  0  0  0
M  END
$$$$