C:\Users\yuzuka\Documents\lab\vina\test\output.pdbqt
 OpenBabel06282214433D

 28 29  0  0  0  0  0  0  0  0999 V2000
  -21.9140  -40.4910    2.3960 Cl  0  0  0  0  0  0  0  0  0  0  0  0
  -22.1370  -36.4860   -1.1300 Cl  0  0  0  0  0  0  0  0  0  0  0  0
  -22.7700  -37.8760   -0.3390 C   0  0  0  0  0  0  0  0  0  0  0  0
  -22.0270  -38.5320    0.6070 C   0  0  0  0  0  3  0  0  0  0  0  0
  -22.4750  -39.6940    1.1900 C   0  0  0  0  0  0  0  0  0  0  0  0
  -23.7040  -40.2470    0.8690 C   0  0  0  0  0  0  0  0  0  0  0  0
  -24.4740  -39.5420   -0.0700 C   0  0  0  0  0  3  0  0  0  0  0  0
  -24.0360  -38.3690   -0.6670 C   0  0  0  0  0  0  0  0  0  0  0  0
  -24.9030  -37.5770   -1.6600 C   0  0  0  0  0  1  0  0  0  0  0  0
  -24.2900  -41.7310    1.5800 S   0  0  0  0  0  0  0  0  0  0  0  0
  -23.2770  -42.8140    1.2480 O   0  0  0  0  0  0  0  0  0  0  0  0
  -25.5380  -42.0610    0.7550 O   0  0  0  0  0  0  0  0  0  0  0  0
  -24.7260  -41.8090    3.2880 C   0  0  0  0  0  0  0  0  0  0  0  0
  -25.1990  -40.6920    3.9860 C   0  0  0  0  0  0  0  0  0  0  0  0
  -25.4610  -40.7300    5.3570 C   0  0  0  0  0  3  0  0  0  0  0  0
  -25.2670  -41.9050    6.0790 C   0  0  0  0  0  0  0  0  0  0  0  0
  -24.8160  -43.0310    5.3950 C   0  0  0  0  0  3  0  0  0  0  0  0
  -24.5520  -42.9900    4.0240 C   0  0  0  0  0  0  0  0  0  0  0  0
  -25.4400  -39.5410    3.3630 N   0  0  0  0  0  0  0  0  0  0  0  0
  -24.5290  -38.4520    3.5270 O   0  0  0  0  0  0  0  0  0  0  0  0
  -26.5860  -39.4110    2.5160 O   0  0  0  0  0  0  0  0  0  0  0  0
  -25.5710  -41.9510    7.5880 C   0  0  0  0  0  0  0  0  0  0  0  0
  -26.8740  -42.1970    7.7790 F   0  0  0  0  0  0  0  0  0  0  0  0
  -24.8230  -42.8800    8.2230 F   0  0  0  0  0  0  0  0  0  0  0  0
  -25.2940  -40.7560    8.1300 F   0  0  0  0  0  0  0  0  0  0  0  0
  -24.1410  -44.1160    3.4290 N   0  0  0  0  0  0  0  0  0  0  0  0
  -25.0640  -44.8850    2.6480 O   0  0  0  0  0  0  0  0  0  0  0  0
  -22.7770  -44.5400    3.5650 O   0  0  0  0  0  0  0  0  0  0  0  0
  2  3  1  0  0  0  0
  3  4  1  0  0  0  0
  4  5  2  0  0  0  0
  5  1  1  0  0  0  0
  6  5  1  0  0  0  0
  6 10  1  0  0  0  0
  7  6  2  0  0  0  0
  8  3  2  0  0  0  0
  8  7  1  0  0  0  0
  9  8  1  0  0  0  0
 10 13  1  0  0  0  0
 11 10  2  0  0  0  0
 12 10  2  0  0  0  0
 13 14  2  0  0  0  0
 13 18  1  0  0  0  0
 14 15  1  0  0  0  0
 15 16  2  0  0  0  0
 16 22  1  0  0  0  0
 17 16  1  0  0  0  0
 18 17  2  0  0  0  0
 19 20  2  0  0  0  0
 19 14  1  0  0  0  0
 21 19  2  0  0  0  0
 22 23  1  0  0  0  0
 22 25  1  0  0  0  0
 22 24  1  0  0  0  0
 26 28  2  0  0  0  0
 26 18  1  0  0  0  0
 27 26  2  0  0  0  0
M  END
$$$$