C:\Users\yuzuka\Documents\lab\vina\test\output.pdbqt
 OpenBabel06282214433D

 28 29  0  0  0  0  0  0  0  0999 V2000
  -21.8940  -40.6640    2.2770 Cl  0  0  0  0  0  0  0  0  0  0  0  0
  -21.8410  -36.6290   -1.2220 Cl  0  0  0  0  0  0  0  0  0  0  0  0
  -22.5870  -37.9440   -0.4020 C   0  0  0  0  0  0  0  0  0  0  0  0
  -21.8760  -38.6900    0.5020 C   0  0  0  0  0  3  0  0  0  0  0  0
  -22.4230  -39.7980    1.1050 C   0  0  0  0  0  0  0  0  0  0  0  0
  -23.7220  -40.2040    0.8470 C   0  0  0  0  0  0  0  0  0  0  0  0
  -24.4550  -39.4090   -0.0480 C   0  0  0  0  0  3  0  0  0  0  0  0
  -23.9170  -38.2870   -0.6640 C   0  0  0  0  0  0  0  0  0  0  0  0
  -24.7380  -37.3930   -1.6080 C   0  0  0  0  0  1  0  0  0  0  0  0
  -24.4360  -41.6180    1.5830 S   0  0  0  0  0  0  0  0  0  0  0  0
  -23.6310  -42.8180    1.1160 O   0  0  0  0  0  0  0  0  0  0  0  0
  -25.7990  -41.7370    0.8950 O   0  0  0  0  0  0  0  0  0  0  0  0
  -24.6940  -41.7010    3.3270 C   0  0  0  0  0  0  0  0  0  0  0  0
  -24.5490  -42.8940    4.0450 C   0  0  0  0  0  0  0  0  0  0  0  0
  -24.8360  -42.9790    5.4080 C   0  0  0  0  0  3  0  0  0  0  0  0
  -25.2740  -41.8580    6.1080 C   0  0  0  0  0  0  0  0  0  0  0  0
  -25.4060  -40.6590    5.4130 C   0  0  0  0  0  3  0  0  0  0  0  0
  -25.1190  -40.5750    4.0480 C   0  0  0  0  0  0  0  0  0  0  0  0
  -24.1050  -44.0020    3.4570 N   0  0  0  0  0  0  0  0  0  0  0  0
  -25.0280  -44.8430    2.7620 O   0  0  0  0  0  0  0  0  0  0  0  0
  -22.7120  -44.3270    3.4980 O   0  0  0  0  0  0  0  0  0  0  0  0
  -25.5780  -41.9490    7.6150 C   0  0  0  0  0  0  0  0  0  0  0  0
  -24.8770  -42.9550    8.1560 F   0  0  0  0  0  0  0  0  0  0  0  0
  -25.3010  -40.7910    8.2540 F   0  0  0  0  0  0  0  0  0  0  0  0
  -26.8810  -42.2160    7.7870 F   0  0  0  0  0  0  0  0  0  0  0  0
  -25.2480  -39.3850    3.4500 N   0  0  0  0  0  0  0  0  0  0  0  0
  -24.1930  -38.4210    3.5500 O   0  0  0  0  0  0  0  0  0  0  0  0
  -26.4350  -39.0860    2.7000 O   0  0  0  0  0  0  0  0  0  0  0  0
  2  3  1  0  0  0  0
  3  4  1  0  0  0  0
  4  5  2  0  0  0  0
  5  1  1  0  0  0  0
  6  5  1  0  0  0  0
  6 10  1  0  0  0  0
  7  6  2  0  0  0  0
  8  3  2  0  0  0  0
  8  7  1  0  0  0  0
  9  8  1  0  0  0  0
 10 13  1  0  0  0  0
 11 10  2  0  0  0  0
 12 10  2  0  0  0  0
 13 14  2  0  0  0  0
 13 18  1  0  0  0  0
 14 15  1  0  0  0  0
 15 16  2  0  0  0  0
 16 22  1  0  0  0  0
 17 16  1  0  0  0  0
 18 17  2  0  0  0  0
 19 21  2  0  0  0  0
 19 14  1  0  0  0  0
 20 19  2  0  0  0  0
 22 25  1  0  0  0  0
 22 23  1  0  0  0  0
 22 24  1  0  0  0  0
 26 27  2  0  0  0  0
 26 18  1  0  0  0  0
 28 26  2  0  0  0  0
M  END
$$$$