C:\Users\yuzuka\Documents\lab\vina\test\output.pdbqt
 OpenBabel06282214433D

 28 29  0  0  0  0  0  0  0  0999 V2000
  -24.4790  -43.1730    5.4060 Cl  0  0  0  0  0  0  0  0  0  0  0  0
  -21.7740  -45.5220    1.4440 Cl  0  0  0  0  0  0  0  0  0  0  0  0
  -22.9180  -44.4010    2.0730 C   0  0  0  0  0  0  0  0  0  0  0  0
  -23.1760  -44.3570    3.4180 C   0  0  0  0  0  3  0  0  0  0  0  0
  -24.1470  -43.5320    3.9340 C   0  0  0  0  0  0  0  0  0  0  0  0
  -24.8980  -42.6920    3.1280 C   0  0  0  0  0  0  0  0  0  0  0  0
  -24.5950  -42.7150    1.7570 C   0  0  0  0  0  3  0  0  0  0  0  0
  -23.6180  -43.5420    1.2210 C   0  0  0  0  0  0  0  0  0  0  0  0
  -23.2590  -43.5300   -0.2740 C   0  0  0  0  0  1  0  0  0  0  0  0
  -26.1510  -41.6480    3.7530 S   0  0  0  0  0  0  0  0  0  0  0  0
  -27.1920  -42.5430    4.4040 O   0  0  0  0  0  0  0  0  0  0  0  0
  -26.8150  -41.0830    2.4950 O   0  0  0  0  0  0  0  0  0  0  0  0
  -25.7580  -40.2970    4.8190 C   0  0  0  0  0  0  0  0  0  0  0  0
  -26.3410  -40.1540    6.0840 C   0  0  0  0  0  0  0  0  0  0  0  0
  -26.0970  -39.0420    6.8920 C   0  0  0  0  0  3  0  0  0  0  0  0
  -25.2440  -38.0300    6.4590 C   0  0  0  0  0  0  0  0  0  0  0  0
  -24.6410  -38.1670    5.2120 C   0  0  0  0  0  3  0  0  0  0  0  0
  -24.8870  -39.2790    4.4040 C   0  0  0  0  0  0  0  0  0  0  0  0
  -27.1430  -41.0920    6.5830 N   0  0  0  0  0  0  0  0  0  0  0  0
  -26.6190  -42.0280    7.5280 O   0  0  0  0  0  0  0  0  0  0  0  0
  -28.5190  -41.1390    6.1960 O   0  0  0  0  0  0  0  0  0  0  0  0
  -24.9640  -36.8100    7.3560 C   0  0  0  0  0  0  0  0  0  0  0  0
  -24.5860  -35.7700    6.6000 F   0  0  0  0  0  0  0  0  0  0  0  0
  -26.0410  -36.4770    8.1020 F   0  0  0  0  0  0  0  0  0  0  0  0
  -23.9560  -37.1000    8.1920 F   0  0  0  0  0  0  0  0  0  0  0  0
  -24.2570  -39.3540    3.2260 N   0  0  0  0  0  0  0  0  0  0  0  0
  -24.8630  -38.7870    2.0580 O   0  0  0  0  0  0  0  0  0  0  0  0
  -22.9720  -39.9880    3.1410 O   0  0  0  0  0  0  0  0  0  0  0  0
  2  3  1  0  0  0  0
  3  4  1  0  0  0  0
  4  5  2  0  0  0  0
  5  1  1  0  0  0  0
  6 10  1  0  0  0  0
  6  5  1  0  0  0  0
  7  6  2  0  0  0  0
  8  7  1  0  0  0  0
  8  3  2  0  0  0  0
  9  8  1  0  0  0  0
 10 11  2  0  0  0  0
 10 13  1  0  0  0  0
 12 10  2  0  0  0  0
 13 14  1  0  0  0  0
 14 19  1  0  0  0  0
 14 15  2  0  0  0  0
 16 15  1  0  0  0  0
 16 22  1  0  0  0  0
 17 16  2  0  0  0  0
 18 13  2  0  0  0  0
 18 17  1  0  0  0  0
 19 20  2  0  0  0  0
 21 19  2  0  0  0  0
 22 24  1  0  0  0  0
 22 25  1  0  0  0  0
 23 22  1  0  0  0  0
 26 18  1  0  0  0  0
 27 26  2  0  0  0  0
 28 26  2  0  0  0  0
M  END
$$$$