C:\Users\yuzuka\Documents\lab\vina\test\output.pdbqt
 OpenBabel06282214433D

 28 29  0  0  0  0  0  0  0  0999 V2000
  -24.7520  -42.2370    0.0920 Cl  0  0  0  0  0  0  0  0  0  0  0  0
  -25.9400  -45.7910   -3.7140 Cl  0  0  0  0  0  0  0  0  0  0  0  0
  -25.0190  -45.2160   -2.3800 C   0  0  0  0  0  0  0  0  0  0  0  0
  -25.2990  -43.9970   -1.8200 C   0  0  0  0  0  3  0  0  0  0  0  0
  -24.5230  -43.4780   -0.8110 C   0  0  0  0  0  0  0  0  0  0  0  0
  -23.4360  -44.1650   -0.2960 C   0  0  0  0  0  0  0  0  0  0  0  0
  -23.1850  -45.4310   -0.8490 C   0  0  0  0  0  3  0  0  0  0  0  0
  -23.9590  -45.9690   -1.8670 C   0  0  0  0  0  0  0  0  0  0  0  0
  -23.7080  -47.3750   -2.4380 C   0  0  0  0  0  1  0  0  0  0  0  0
  -22.4210  -43.5210    0.9720 S   0  0  0  0  0  0  0  0  0  0  0  0
  -21.6520  -42.3550    0.3770 O   0  0  0  0  0  0  0  0  0  0  0  0
  -21.3880  -44.6260    1.2070 O   0  0  0  0  0  0  0  0  0  0  0  0
  -23.1020  -43.0670    2.5360 C   0  0  0  0  0  0  0  0  0  0  0  0
  -23.9430  -43.9230    3.2570 C   0  0  0  0  0  0  0  0  0  0  0  0
  -24.5510  -43.5320    4.4520 C   0  0  0  0  0  3  0  0  0  0  0  0
  -24.3260  -42.2610    4.9740 C   0  0  0  0  0  0  0  0  0  0  0  0
  -23.4770  -41.4050    4.2780 C   0  0  0  0  0  3  0  0  0  0  0  0
  -22.8700  -41.7970    3.0820 C   0  0  0  0  0  0  0  0  0  0  0  0
  -24.1830  -45.1650    2.8420 N   0  0  0  0  0  0  0  0  0  0  0  0
  -23.2760  -46.2090    3.2020 O   0  0  0  0  0  0  0  0  0  0  0  0
  -25.3530  -45.4490    2.0700 O   0  0  0  0  0  0  0  0  0  0  0  0
  -24.9850  -41.8350    6.2990 C   0  0  0  0  0  0  0  0  0  0  0  0
  -24.4890  -42.5670    7.3060 F   0  0  0  0  0  0  0  0  0  0  0  0
  -24.8080  -40.5190    6.5480 F   0  0  0  0  0  0  0  0  0  0  0  0
  -26.3040  -42.0690    6.2300 F   0  0  0  0  0  0  0  0  0  0  0  0
  -22.0500  -40.9290    2.4790 N   0  0  0  0  0  0  0  0  0  0  0  0
  -22.5900  -39.9210    1.6160 O   0  0  0  0  0  0  0  0  0  0  0  0
  -20.6350  -41.0040    2.7080 O   0  0  0  0  0  0  0  0  0  0  0  0
  2  3  1  0  0  0  0
  3  8  2  0  0  0  0
  3  4  1  0  0  0  0
  4  5  2  0  0  0  0
  5  6  1  0  0  0  0
  5  1  1  0  0  0  0
  6 10  1  0  0  0  0
  7  6  2  0  0  0  0
  8  7  1  0  0  0  0
  9  8  1  0  0  0  0
 10 12  2  0  0  0  0
 10 13  1  0  0  0  0
 11 10  2  0  0  0  0
 13 18  2  0  0  0  0
 13 14  1  0  0  0  0
 14 15  2  0  0  0  0
 15 16  1  0  0  0  0
 16 22  1  0  0  0  0
 17 16  2  0  0  0  0
 18 17  1  0  0  0  0
 19 20  2  0  0  0  0
 19 14  1  0  0  0  0
 21 19  2  0  0  0  0
 22 24  1  0  0  0  0
 22 23  1  0  0  0  0
 25 22  1  0  0  0  0
 26 28  2  0  0  0  0
 26 18  1  0  0  0  0
 27 26  2  0  0  0  0
M  END
$$$$