C:\Users\yuzuka\Documents\lab\vina\test\output.pdbqt
 OpenBabel06282214433D

 28 29  0  0  0  0  0  0  0  0999 V2000
  -22.2420  -41.9640    1.2620 Cl  0  0  0  0  0  0  0  0  0  0  0  0
  -23.4650  -36.7800    1.6620 Cl  0  0  0  0  0  0  0  0  0  0  0  0
  -23.8490  -38.4560    1.6780 C   0  0  0  0  0  0  0  0  0  0  0  0
  -22.8800  -39.3910    1.4230 C   0  0  0  0  0  3  0  0  0  0  0  0
  -23.1790  -40.7300    1.3440 C   0  0  0  0  0  0  0  0  0  0  0  0
  -24.4660  -41.2050    1.5380 C   0  0  0  0  0  0  0  0  0  0  0  0
  -25.4420  -40.2430    1.8410 C   0  0  0  0  0  3  0  0  0  0  0  0
  -25.1560  -38.8870    1.9240 C   0  0  0  0  0  0  0  0  0  0  0  0
  -26.2190  -37.8420    2.3010 C   0  0  0  0  0  1  0  0  0  0  0  0
  -24.8790  -42.8990    1.4240 S   0  0  0  0  0  0  0  0  0  0  0  0
  -24.5550  -43.3420    0.0080 O   0  0  0  0  0  0  0  0  0  0  0  0
  -26.4060  -42.9080    1.5250 O   0  0  0  0  0  0  0  0  0  0  0  0
  -24.2460  -44.0660    2.5870 C   0  0  0  0  0  0  0  0  0  0  0  0
  -24.1160  -43.7640    3.9480 C   0  0  0  0  0  0  0  0  0  0  0  0
  -23.5360  -44.6560    4.8520 C   0  0  0  0  0  3  0  0  0  0  0  0
  -23.0720  -45.8960    4.4210 C   0  0  0  0  0  0  0  0  0  0  0  0
  -23.2120  -46.2190    3.0750 C   0  0  0  0  0  3  0  0  0  0  0  0
  -23.7910  -45.3250    2.1700 C   0  0  0  0  0  0  0  0  0  0  0  0
  -24.5640  -42.6140    4.4440 N   0  0  0  0  0  0  0  0  0  0  0  0
  -23.6410  -41.5480    4.6780 O   0  0  0  0  0  0  0  0  0  0  0  0
  -25.9590  -42.4440    4.7130 O   0  0  0  0  0  0  0  0  0  0  0  0
  -22.4450  -46.8840    5.4230 C   0  0  0  0  0  0  0  0  0  0  0  0
  -22.0680  -46.2280    6.5290 F   0  0  0  0  0  0  0  0  0  0  0  0
  -23.2950  -47.8840    5.7410 F   0  0  0  0  0  0  0  0  0  0  0  0
  -21.3490  -47.4300    4.8750 F   0  0  0  0  0  0  0  0  0  0  0  0
  -23.9120  -45.7110    0.8950 N   0  0  0  0  0  0  0  0  0  0  0  0
  -25.1560  -46.2460    0.4290 O   0  0  0  0  0  0  0  0  0  0  0  0
  -22.8000  -45.5760   -0.0030 O   0  0  0  0  0  0  0  0  0  0  0  0
  1  5  1  0  0  0  0
  2  3  1  0  0  0  0
  3  8  1  0  0  0  0
  4  3  2  0  0  0  0
  5  4  1  0  0  0  0
  5  6  2  0  0  0  0
  6  7  1  0  0  0  0
  7  8  2  0  0  0  0
  8  9  1  0  0  0  0
 10 12  2  0  0  0  0
 10  6  1  0  0  0  0
 10 13  1  0  0  0  0
 11 10  2  0  0  0  0
 13 14  1  0  0  0  0
 14 19  1  0  0  0  0
 14 15  2  0  0  0  0
 16 15  1  0  0  0  0
 16 22  1  0  0  0  0
 17 16  2  0  0  0  0
 18 13  2  0  0  0  0
 18 17  1  0  0  0  0
 19 20  2  0  0  0  0
 19 21  2  0  0  0  0
 22 24  1  0  0  0  0
 22 23  1  0  0  0  0
 25 22  1  0  0  0  0
 26 18  1  0  0  0  0
 27 26  2  0  0  0  0
 28 26  2  0  0  0  0
M  END
$$$$